*
*BC557A small signal pnp bjt
*BC557B small signal pnp bjt
*BC557C small signal pnp bjt
*
.MODEL BC557A PNP IS=1.149E-14 ISE=5E-14 NF=.9872 NE=1.4 BF=200 BR=13
+IKF=.1 IKR=.012 ISC=1.43E-14 NC=1.1 NR=.996 RB=.2 RE=.4 RC=.95 VAR=8.15
+VAF=84.56 CJE=16E-12 TF=.493E-9 CJC=10.5E-12 TR=73.55E-9 MJC=.415 VJC=.565
.MODEL BC557B PNP IS=1.149E-14 ISE=5E-14 NF=.9872 NE=1.4 BF=400 BR=13
+IKF=.1 IKR=.012 ISC=1.43E-14 NC=1.1 NR=.996 RB=.2 RE=.4 RC=.95 VAR=8.15
+VAF=84.56 CJE=16E-12 TF=.493E-9 CJC=10.5E-12 TR=73.55E-9 MJC=.415 VJC=.565
.MODEL BC557C PNP IS=1.149E-14 ISE=5E-14 NF=.9872 NE=1.4 BF=600 BR=13
+IKF=.1 IKR=.012 ISC=1.43E-14 NC=1.1 NR=.996 RB=.2 RE=.4 RC=.95 VAR=8.15
+VAF=84.56 CJE=16E-12 TF=.493E-9 CJC=10.5E-12 TR=73.55E-9 MJC=.415 VJC=.565
*
*BC547A small signal npn bjt
*BC547B small signal npn bjt
*BC547C small signal npn bjt
*
.MODEL BC547A NPN IS=1.8E-14 ISE=5.0E-14 NF=.9955 NE=1.46 BF=200 BR=35.5
+IKF=.14 IKR=.03 ISC=1.72E-13 NC=1.27 NR=1.005 RB=.56 RE=.6 RC=.25 VAF=80
+VAR=12.5 CJE=13E-12 TF=.64E-9 CJC=4E-12 TR=50.72E-9 VJC=.54 MJC=.33
.MODEL BC547B NPN IS=1.8E-14 ISE=5.0E-14 NF=.9955 NE=1.46 BF=400 BR=35.5
+IKF=.14 IKR=.03 ISC=1.72E-13 NC=1.27 NR=1.005 RB=.56 RE=.6 RC=.25 VAF=80
+VAR=12.5 CJE=13E-12 TF=.64E-9 CJC=4E-12 TR=50.72E-9 VJC=.54 MJC=.33
.MODEL BC547C NPN IS=1.8E-14 ISE=5.0E-14 NF=.9955 NE=1.46 BF=600 BR=35.5
+IKF=.14 IKR=.03 ISC=1.72E-13 NC=1.27 NR=1.005 RB=.56 RE=.6 RC=.25 VAF=80
+VAR=12.5 CJE=13E-12 TF=.64E-9 CJC=4E-12 TR=50.72E-9 VJC=.54 MJC=.33


*.MODEL BUT11 NPN ( IS=1.8E-14 ISE=5.0E-14 NF=.9955 NE=1.46 BF=600 BR=35.5
*+IKF=.14 IKR=.03 ISC=1.72E-13 NC=1.27 NR=1.005 RB=.56 RE=.6 RC=.25 VAF=80
*+VAR=12.5 CJE=13E-12 TF=.64E-9 CJC=4E-12 TR=50.72E-9 VJC=.54 MJC=.33)


*SRC=2SC3846;Q2SC3846;BJTs NPN;Power;800V 6A
*SYM=POWBJTN
*PINOUT TO-3PF
.SUBCKT Q2SC3846 1 2 3
*    TERMINALS:  C B E
* Fujitsu 800 Volt  6 Amp  SiNPN  Power Transistor  11-11-1993
Q1 1 2 3  QPWR .67
Q2 1 4 3  QPWR .33
RBS  2 4  2.75
.MODEL QPWR NPN (IS=147F NF=1 BF=39 VAF=509 IKF=2 ISE=572P NE=2
+BR=4 NR=1 VAR=20 IKR=3 RE=.153 RB=.613 RC=61.3M XTB=1.5
+CJE=348P VJE=.6 MJE=.3 CJC=226P VJC=.22 MJC=.2 TF=10.6N TR=5.44U)
.ENDS 
