
*
*SRC=1N4148;DN4148;Diodes;Switching;75V 200mA
*
.MODEL DN4148 D(RS=.8 CJO=4PF IS=7E-09 N=2 VJ=.6V    
+ TT=6E-09 M=.45 BV=100V)
* Unitrode    100 Volt 200mA   5ns    Si Diode 10-26-1990
*

******
.MODEL D1N4001 D(
+   IS =  1.001e-20
+   RS =  0.001
+   CJO =  1e-12
+   VJ =  0.75
+   TT =  5e-09
+   M =  0.3333
+   BV =  100
+   N =  1
+   EG =  1.11
+   XTI =  3
+   KF =  0
+   AF =  1
+   FC =  0.5
+   IBV =  0.0001
+   TNOM =  27 )

.MODEL D1N4002 D (
+   IS =  1.001e-20
+   RS =  0.001
+   CJO =  1e-12
+   VJ =  0.75
+   TT =  5e-09
+   M =  0.3333
+   BV =  100
+   N =  1
+   EG =  1.11
+   XTI =  3
+   KF =  0
+   AF =  1
+   FC =  0.5
+   IBV =  0.0001
+   TNOM =  27)

.MODEL D1N4003 D (
+   IS =  1.001e-20
+   RS =  0.001
+   CJO =  1e-12
+   VJ =  0.75
+   TT =  5e-09
+   M =  0.3333
+   BV =  100
+   N =  1
+   EG =  1.11
+   XTI =  3
+   KF =  0
+   AF =  1
+   FC =  0.5
+   IBV =  0.0001
+   TNOM =  27)

.MODEL D1N4004 D (
+   IS =  1.001e-20
+   RS =  0.001
+   CJO =  1e-12
+   VJ =  0.75
+   TT =  5e-09
+   M =  0.3333
+   BV =  100
+   N =  1
+   EG =  1.11
+   XTI =  3
+   KF =  0
+   AF =  1
+   FC =  0.5
+   IBV =  0.0001
+   TNOM =  27)

.MODEL D1N4005 D (
+   IS =  1.001e-20
+   RS =  0.001
+   CJO =  1e-12
+   VJ =  0.75
+   TT =  5e-09
+   M =  0.3333
+   BV =  100
+   N =  1
+   EG =  1.11
+   XTI =  3
+   KF =  0
+   AF =  1
+   FC =  0.5
+   IBV =  0.0001
+   TNOM =  27)

.MODEL D1N4006 D (
+   IS =  1.001e-20
+   RS =  0.001
+   CJO =  1e-12
+   VJ =  0.75
+   TT =  5e-09
+   M =  0.3333
+   BV =  100
+   N =  1
+   EG =  1.11
+   XTI =  3
+   KF =  0
+   AF =  1
+   FC =  0.5
+   IBV =  0.0001
+   TNOM =  27)

.MODEL D1N4007 D (
+   IS =  1.001e-20
+   RS =  0.001
+   CJO =  1e-12
+   VJ =  0.75
+   TT =  5e-09
+   M =  0.3333
+   BV =  100
+   N =  1
+   EG =  1.11
+   XTI =  3
+   KF =  0
+   AF =  1
+   FC =  0.5
+   IBV =  0.0001
+   TNOM =  27
+ )

.MODEL D1N4044 D (
+   IS =  1e-14
+   RS =  0.001
+   CJO =  1e-12
+   VJ =  0.75
+   TT =  5e-09
+   M =  0.3333
+   BV =  100
+   N =  1
+   EG =  1.11
+   XTI =  3
+   KF =  0
+   AF =  1
+   FC =  0.5
+   IBV =  0.0001
+   TNOM =  27
+)

.MODEL D1N5401 D (
+   IS =  1.001e-20
+   RS =  0.001
+   CJO =  1e-12
+   VJ =  0.75
+   TT =  5e-09
+   M =  0.3333
+   BV =  100
+   N =  1
+   EG =  1.11
+   XTI =  3
+   KF =  0
+   AF =  1
+   FC =  0.5
+   IBV =  0.0001
+   TNOM =  27
+)

.MODEL D1N5402 D (
+   IS =  1.001e-20
+   RS =  0.001
+   CJO =  1e-12
+   VJ =  0.75
+   TT =  5e-09
+   M =  0.3333
+   BV =  100
+   N =  1
+   EG =  1.11
+   XTI =  3
+   KF =  0
+   AF =  1
+   FC =  0.5
+   IBV =  0.0001
+   TNOM =  27
+)

.MODEL D1N5404 D (
+   IS =  1.001e-20
+   RS =  0.001
+   CJO =  1e-12
+   VJ =  0.75
+   TT =  5e-09
+   M =  0.3333
+   BV =  100
+   N =  1
+   EG =  1.11
+   XTI =  3
+   KF =  0
+   AF =  1
+   FC =  0.5
+   IBV =  0.0001
+   TNOM =  27
+)

.MODEL D1N5406 D (
+   IS =  1.001e-20
+   RS =  0.001
+   CJO =  1e-12
+   VJ =  0.75
+   TT =  5e-09
+   M =  0.3333
+   BV =  100
+   N =  1
+   EG =  1.11
+   XTI =  3
+   KF =  0
+   AF =  1
+   FC =  0.5
+   IBV =  0.0001
+   TNOM =  27
+)

.MODEL D1N5407 D (
+   IS =  1.001e-20
+   RS =  0.001
+   CJO =  1e-12
+   VJ =  0.75
+   TT =  5e-09
+   M =  0.3333
+   BV =  100
+   N =  1
+   EG =  1.11
+   XTI =  3
+   KF =  0
+   AF =  1
+   FC =  0.5
+   IBV =  0.0001
+   TNOM =  27
+)

.MODEL D1N5408 D (
+   IS =  1.001e-20
+   RS =  0.001
+   CJO =  1e-12
+   VJ =  0.75
+   TT =  5e-09
+   M =  0.3333
+   BV =  100
+   N =  1
+   EG =  1.11
+   XTI =  3
+   KF =  0
+   AF =  1
+   FC =  0.5
+   IBV =  0.0001
+   TNOM =  27
+)
