*******************************************
*  old leaky 2mF elko SPICE Model
*  Subckt Name: C105_cer
*******************************************
*
.SUBCKT C105_cer     1   4
*   fo=1e6 Hz
L1    1     2     1.267e-11
R1    2     3     0.1
C1    3     4     2e-3
R2    3     4     500e3
.ENDS
