*******************************************
*  old leaky 2mF elko SPICE Model
*  Subckt Name: C105_cer
*******************************************
*
.SUBCKT C105_cer     1   4
*   fo=1e6 Hz
L1    1     2     1.267e-11
R1    2     3     0.1
C1    3     4     2e-3
R2    3     4     500e3
.ENDS

*******************************************
*  leaky 1uF elko
*  Subckt Name: elko_1u_leaky
*******************************************
*
.SUBCKT elko_10u_leaky   1    2
L1    1     4     1.467e-11
R1    4     3     0.1
C1    3     2     10e-6
R4    3     2     200e3
.ENDS
