.SUBCKT irfz34n_IR 1 2 3
* 1  Drain
* 2  Gate
* 3  Source
M1 9 7 8 8 MM L=100u W=100u
.MODEL MM NMOS LEVEL=1 IS=1e-32
+VTO=3.65645 LAMBDA=0 KP=17.7646
+CGSO=6.22832e-06 CGDO=1.97453e-07
RS 8 3 0.0280664
D1 3 1 MD
.MODEL MD D IS=1.0923e-13 RS=0.00951665 N=0.960237 BV=55
+IBV=0.00025 EG=1 XTI=1 TT=2.00004e-05
+CJO=5.91562e-10 VJ=1.29493 M=0.482115 FC=0.1
RDS 3 1 2.2e+06
RD 9 1 0.0001
RG 2 7 2.19574
D2 4 5 MD1
.MODEL MD1 D IS=1e-32 N=50
+CJO=8.11706e-10 VJ=0.50002 M=0.598708 FC=1e-08
D3 0 5 MD2
.MODEL MD2 D IS=1e-10 N=0.419075 RS=3e-06
RL 5 10 1
FI2 7 9 VFI2 -1
VFI2 4 0 0
EV16 10 0 9 7 1
CAP 11 10 1.15458e-09
FI1 7 9 VFI1 -1
VFI1 11 6 0
RCAP 6 10 1
D4 0 6 MD3
.MODEL MD3 D IS=1e-10 N=0.419075
.ENDS
