.subckt tsw1 in1 in2 t1=1n t2=2n on=0
  * switch on- and off resistances
  .param ron=1m roff=10Meg
  * rise and fall times during switch actuation
  .param tr=1u tf=1u
  * voltage controlled switch with threshold 1V
  S1 in1 in2 1 0 tsw
  .model tsw sw vt=1 vh=0.02 ron='ron' roff='roff'
  .if(on==0)
  * single pulse as controlling voltage:
  * beyond threshold during t1 < t < t2
  Vsw 1 0 DC 0.0 PULSE(0 2 't1' 'tr' 'tf' 't2 - t1' 10000)
  .else
  * below threshold during t1 < t < t2
  Vsw 1 0 DC 0.0 PULSE(2 0 't1' 'tr' 'tf' 't2 - t1' 10000)
  .endif
.ends

.subckt tsw2 in1a in1b in2a in2b t1=1n t2=2n on=0
  * switch on- and off resistances
  .param ron=1m roff=10Meg
  * rise and fall times during switch actuation
  .param tr=1u tf=1u
  * voltage controlled switch with threshold 1V
  S1 in1a in1b 1 0 tsw1
  S2 in2a in2b 1 0 tsw2
  .model tsw1 sw vt=1 vh=0.02 ron='ron' roff='roff'
  .if(on==0)
  * single pulse as controlling voltage:
  * beyond threshold during t1 < t < t2
  Vsw 1 0 DC 0.0 PULSE(0 2 't1' 'tr' 'tf' 't2 - t1' 10000)
  .else
  * below threshold during t1 < t < t2
  Vsw 1 0 DC 0.0 PULSE(2 0 't1' 'tr' 'tf' 't2 - t1' 10000)
  .endif
  .model tsw2 sw vt=1 vh=0.02 ron='ron' roff='roff'
  .if(on==0)
  * single pulse as controlling voltage:
  * beyond threshold during t1 < t < t2
  Vsw 1 0 DC 0.0 PULSE(0 2 't1' 'tr' 'tf' 't2 - t1' 10000)
  .else
  * below threshold during t1 < t < t2
  Vsw 1 0 DC 0.0 PULSE(2 0 't1' 'tr' 'tf' 't2 - t1' 10000)
  .endif
.ends

.subckt tsw3 in1a in1b in2a in2b in3a in3b t1=1n t2=2n on=0
  * switch on- and off resistances
  .param ron=1m roff=10Meg
  * rise and fall times during switch actuation
  .param tr=1u tf=1u

  * voltage controlled switch with threshold 1V
  S1 in1a in1b 1 0 tsw1
  S2 in2a in2b 1 0 tsw2
  S3 in3a in3b 1 0 tsw3

  .model tsw1 sw vt=1 vh=0.02 ron='ron' roff='roff'
  .if(on==0)
  * single pulse as controlling voltage:
  * beyond threshold during t1 < t < t2
  Vsw 1 0 DC 0.0 PULSE(0 2 't1' 'tr' 'tf' 't2 - t1' 10000)
  .else
  * below threshold during t1 < t < t2
  Vsw 1 0 DC 0.0 PULSE(2 0 't1' 'tr' 'tf' 't2 - t1' 10000)
  .endif

  .model tsw2 sw vt=1 vh=0.02 ron='ron' roff='roff'
  .if(on==0)
  * single pulse as controlling voltage:
  * beyond threshold during t1 < t < t2
  Vsw 1 0 DC 0.0 PULSE(0 2 't1' 'tr' 'tf' 't2 - t1' 10000)
  .else
  * below threshold during t1 < t < t2
  Vsw 1 0 DC 0.0 PULSE(2 0 't1' 'tr' 'tf' 't2 - t1' 10000)
  .endif


  .model tsw3 sw vt=1 vh=0.02 ron='ron' roff='roff'
  .if(on==0)
  * single pulse as controlling voltage:
  * beyond threshold during t1 < t < t2
  Vsw 1 0 DC 0.0 PULSE(0 2 't1' 'tr' 'tf' 't2 - t1' 10000)
  .else
  * below threshold during t1 < t < t2
  Vsw 1 0 DC 0.0 PULSE(2 0 't1' 'tr' 'tf' 't2 - t1' 10000)
  .endif

.ends
