* Philips BZX793V0 3.0V .5W
.MODEL BZX793V0 D(RS=14.556 BV=2.6089
+ CJO=648.11P TT=50N M=.33 VJ=.75 IS=1.0E-10 N=1.27 IBV=6MA)


* Philips BZX793V3 3.3V .5W
.MODEL BZX793V3 D(RS=13.650 BV=3.0270
+ CJO=582.57P TT=50N M=.33 VJ=.75 IS=1.0E-10 N=1.27 IBV=5MA)


* Philips BZX793V6 3.6V .5W
.MODEL BZX793V6 D(RS=13.094 BV=3.2381
+ CJO=554.97P TT=50N M=.33 VJ=.75 IS=1.0E-10 N=1.27 IBV=5MA)


* Philips BZX793V9 3.9V .5W
.MODEL BZX793V9 D(RS=11.838 BV=3.6632
+ CJO=507.57P TT=50N M=.33 VJ=.75 IS=1.0E-10 N=1.27 IBV=5MA)


* Philips BZX794V3 4.3V .5W
.MODEL BZX794V3 D(RS=10.467 BV=4.0907
+ CJO=468.29P TT=50N M=.33 VJ=.75 IS=1.0E-10 N=1.27 IBV=5MA)


* Philips BZX794V7 4.7V .5W
.MODEL BZX794V7 D(RS=9.0662 BV=4.5187
+ CJO=435.15P TT=50N M=.33 VJ=.75 IS=1.0E-10 N=1.27 IBV=10MA)


* Philips BZX795V1 5.1V .5W
.MODEL BZX795V1 D(RS=7.7083 BV=4.9458
+ CJO=406.80P TT=50N M=.33 VJ=.75 IS=1.0E-10 N=1.27 IBV=5MA)


* Philips BZX795V6 5.6V .5W
.MODEL BZX795V6 D(RS=6.1685 BV=5.4766
+ CJO=376.59P TT=50N M=.33 VJ=.75 IS=1.0E-10 N=1.27 IBV=5MA)


* Philips BZX796V2 6.2V .5W
.MODEL BZX796V2 D(RS=4.6846 BV=6.1063
+ CJO=346.26P TT=50N M=.33 VJ=.75 IS=1.0E-10 N=1.27 IBV=5MA)


* Philips BZX796V8 6.8V .5W
.MODEL BZX796V8 D(RS=3.7207 BV=6.7256
+ CJO=320.85P TT=50N M=.33 VJ=.75 IS=3.8E-09 N=1.27 IBV=5MA)


* Philips BZX797V5 7.5V .5W
.MODEL BZX797V5 D(RS=2.6167 BV=7.4564
+ CJO=916.54P TT=20N N=2 IS=3.8E-09 IBV=5.0M)


* Philips BZX798V2 8.2V .5W
.MODEL BZX798V2 D(RS=3.1128 BV=8.1525
+ CJO=863.74P TT=20N N=2 IS=3.8E-09 IBV=4M)


* Philips BZX799V1 9.1V .5W
.MODEL BZX799V1 D(RS=3.7754 BV=9.0481
+ CJO=805.95P TT=20N N=2 IS=3.8E-09 IBV=3M)


* Philips BZX79A10 10V .5W
.MODEL BZX79A10 D(RS=4.4645 BV=9.9442
+ CJO=756.95P TT=20N N=2 IS=3.8E-09 IBV=1M)
* Philips 10  Volt Zener


* Philips BZX79A11 11V .5W
.MODEL BZX79A11 D(RS=5.2600 BV=10.940
+ CJO=710.46P TT=20N N=2 IS=3.8E-09 IBV=1M)


* Philips BZX79A12 12V .5W
.MODEL BZX79A12 D(RS=6.0855 BV=11.937
+ CJO=670.52P TT=20N N=2 IS=3.8E-09 IBV=1M)


* Philips BZX79A13 13V .5W
.MODEL BZX79A13 D(RS=6.9397 BV=12.933
+ CJO=635.76P TT=20N N=2 IS=3.8E-09 IBV=1M)


* Philips BZX79A15 15V .5W
.MODEL BZX79A15 D(RS=8.7297 BV=14.927
+ CJO=578.05P TT=20N N=2 IS=3.8E-09 IBV=1M)


* Philips BZX79A16 16V .5W
.MODEL BZX79A16 D(RS=9.6639 BV=15.925
+ CJO=553.77P TT=20N N=2 IS=3.8E-09 IBV=9.0E-4)


* Philips BZX79A18 18V .5W
.MODEL BZX79A18 D(RS=11.607 BV=17.919
+ CJO=512.05P TT=20N N=2 IS=3.8E-09 IBV=8.0E-4)


* Philips BZX79A20 20V .5W
.MODEL BZX79A20 D(RS=13.647 BV=19.915
+ CJO=477.40P TT=20N N=2 IS=3.8E-09 IBV=7.0E-4)


* Philips BZX79A22 22V .5W
.MODEL BZX79A22 D(RS=15.783 BV=21.910
+ CJO=448.08P TT=20N N=2 IS=3.8E-09 IBV=6.0E-4)


* Philips BZX79A24 24V .5W
.MODEL BZX79A24 D(RS=18.014 BV=23.906
+ CJO=422.89P TT=20N N=2 IS=3.8E-09 IBV=5.0E-4)


* Philips BZX79A27 27V .5W
.MODEL BZX79A27 D(RS=21.545 BV=26.900
+ CJO=391.03P TT=20N N=2 IS=3.8E-09 IBV=4.0E-4)


* Philips BZX79A30 30V .5W
.MODEL BZX79A30 D(RS=25.311 BV=29.895
+ CJO=364.57P TT=20N N=2 IS=3.8E-09 IBV=3.0E-4)


* Philips BZX79A33 33V .5W
.MODEL BZX79A33 D(RS=29.333 BV=32.889
+ CJO=342.18P TT=20N N=2 IS=3.8E-09 IBV=2.0E-4)


* Philips BZX79A36 36V .5W
.MODEL BZX79A36 D(RS=33.640 BV=35.883
+ CJO=322.94P TT=20N N=2 IS=3.8E-09 IBV=1.0E-4)


* Philips BZX79A39 39V .5W
.MODEL BZX79A39 D(RS=38.266 BV=38.877
+ CJO=306.20P TT=20N N=2 IS=3.8E-09 IBV=1.0E-4)


* Philips BZX79A43 43V .5W
.MODEL BZX79A43 D(RS=44.998 BV=42.869
+ CJO=286.95P TT=20N N=2 IS=3.8E-09 IBV=1.0E-4)


* Philips BZX79A47 47V .5W
.MODEL BZX79A47 D(RS=52.468 BV=46.860
+ CJO=270.47P TT=20N N=2 IS=3.8E-09 IBV=1.0E-4)


* Philips BZX79A51 51V .5W
.MODEL BZX79A51 D(RS=60.790 BV=50.851
+ CJO=256.17P TT=20N N=2 IS=3.8E-09 IBV=1.0E-4)


* Philips BZX79A56 56V .5W
.MODEL BZX79A56 D(RS=72.570 BV=55.838
+ CJO=240.73P TT=20N N=2 IS=3.8E-09 IBV=5.0E-5)


* Philips BZX79A62 62V .5W
.MODEL BZX79A62 D(RS=89.038 BV=61.820
+ CJO=224.97P TT=20N N=2 IS=3.8E-09 IBV=5.0E-5)


* Philips BZX79A75 75V .5W
.MODEL BZX79A75 D(RS=135.27 BV=74.775
+ CJO=198.22P TT=20N N=2 IS=3.8E-09 IBV=1.0E-5)


* Philips BZX79A91 91V .5W
.MODEL BZX79A91 D(RS=216.22 BV=90.703
+ CJO=174.30P TT=20N N=2 IS=3.8E-09 IBV=1.0E-5)
