**********
*SRC=BZX79A5.1;BZX795V1;Diodes;Zener <=10V;5.1V .5W
.MODEL BZX795V1 D(RS=7.7083 BV=4.9458  
+ CJO=406.80P TT=50N M=.33 VJ=.75 IS=1.0E-10 N=1.27 IBV=5MA) 
* Philips 5.1 Volt Zener
**********
